Test_Network/condensed/network_5/Feeder_1/Lines.txt
New Line.LINE33 Bus1=33 Bus2=34 phases=3 Linecode=5c_.1 Length=3.069 Units=m
New Line.LINE35 Bus1=34 Bus2=36 phases=3 Linecode=5c_.1 Length=13.3501 Units=m
New Line.LINE54 Bus1=52 Bus2=55 phases=3 Linecode=2c_.0145 Length=3.8601 Units=m
New Line.LINE95 Bus1=94 Bus2=96 phases=3 Linecode=2c_.0145 Length=6.8778 Units=m
New Line.LINE98 Bus1=96 Bus2=99 phases=3 Linecode=2c_.0145 Length=5.3558 Units=m
New Line.LINECmpd_0 Bus1=1 Bus2=33 phases=3 Linecode=5c_.06 Length=26.866511 Units=m
New Line.LINECmpd_1 Bus1=34 Bus2=52 phases=3 Linecode=2c_.0145 Length=14.408557 Units=m
New Line.LINECmpd_2 Bus1=96 Bus2=130 phases=3 Linecode=2c_.0145 Length=11.340087 Units=m
New Line.LINECmpd_3 Bus1=52 Bus2=87 phases=3 Linecode=2c_.0145 Length=11.438564 Units=m
New Line.LINECmpd_4 Bus1=36 Bus2=94 phases=3 Linecode=5c_.04 Length=32.18877 Units=m
